Version 4
SHEET 1 2708 740
WIRE -160 -64 -336 -64
WIRE -16 -64 -160 -64
WIRE 320 -64 64 -64
WIRE -160 -32 -160 -64
WIRE -160 64 -160 32
WIRE -160 64 -192 64
WIRE -32 64 -160 64
WIRE -32 144 -32 64
WIRE 32 144 -32 144
WIRE -336 176 -336 -64
WIRE -272 176 -336 176
WIRE 0 176 -192 176
WIRE 32 176 0 176
WIRE 144 192 112 192
WIRE 208 192 144 192
WIRE 320 192 320 -64
WIRE 320 192 272 192
WIRE 352 192 320 192
WIRE 496 192 432 192
WIRE 544 192 496 192
WIRE 704 192 704 128
WIRE 704 192 624 192
WIRE 800 192 704 192
WIRE -336 224 -336 176
WIRE 800 224 752 224
WIRE 912 240 880 240
WIRE 976 240 912 240
WIRE 1104 240 1040 240
WIRE 1152 240 1104 240
WIRE 1312 240 1312 176
WIRE 1312 240 1216 240
WIRE 1408 240 1312 240
WIRE 1408 272 1360 272
WIRE 1520 288 1488 288
WIRE 1728 288 1520 288
WIRE 0 320 0 176
WIRE 32 320 0 320
WIRE 144 320 144 192
WIRE 144 320 112 320
WIRE 496 320 496 192
WIRE 544 320 496 320
WIRE 752 320 752 224
WIRE 752 320 608 320
WIRE 1696 320 1600 320
WIRE 1728 320 1696 320
WIRE 1840 336 1808 336
WIRE 2016 336 1840 336
WIRE 752 368 752 320
WIRE 912 368 912 240
WIRE 912 368 752 368
WIRE 1104 368 1104 240
WIRE 1136 368 1104 368
WIRE 1360 368 1360 272
WIRE 1360 368 1216 368
WIRE 1360 416 1360 368
WIRE 1520 416 1520 288
WIRE 1520 416 1360 416
WIRE 1600 432 1600 320
WIRE 1696 464 1696 320
WIRE 1728 464 1696 464
WIRE 1840 464 1840 336
WIRE 1840 464 1808 464
FLAG -272 64 0
FLAG 112 128 +Vcc
FLAG 112 160 -Vcc
FLAG 880 176 +Vcc
FLAG 880 208 -Vcc
FLAG 704 64 0
FLAG 1808 272 +Vcc
FLAG 1808 304 -Vcc
FLAG 1600 512 0
FLAG 1488 224 +Vcc
FLAG 1488 256 -Vcc
FLAG 1312 96 0
FLAG 2016 416 0
FLAG -336 304 0
FLAG 384 464 0
FLAG 272 464 0
FLAG 272 384 +Vcc
FLAG 384 384 -Vcc
SYMBOL AutoGenerated\\AD8606 64 160 R0
SYMATTR InstName U1
SYMBOL res -176 160 R90
WINDOW 0 0 56 VBottom 2
WINDOW 3 32 56 VTop 2
SYMATTR InstName R1
SYMATTR Value 68K
SYMBOL res -176 48 R90
WINDOW 0 0 56 VBottom 2
WINDOW 3 32 56 VTop 2
SYMATTR InstName R3
SYMATTR Value 68K
SYMBOL cap -176 -32 R0
SYMATTR InstName C1
SYMATTR Value 47nF
SYMBOL res 80 -80 R90
WINDOW 0 0 56 VBottom 2
WINDOW 3 32 56 VTop 2
SYMATTR InstName R4
SYMATTR Value 68K
SYMBOL cap 272 176 R90
WINDOW 0 0 32 VBottom 2
WINDOW 3 32 32 VTop 2
SYMATTR InstName C2
SYMATTR Value 47nF
SYMBOL AutoGenerated\\AD8606 832 208 R0
SYMATTR InstName U2
SYMBOL res 448 176 R90
WINDOW 0 0 56 VBottom 2
WINDOW 3 32 56 VTop 2
SYMATTR InstName R5
SYMATTR Value 10K
SYMBOL res 640 176 R90
WINDOW 0 0 56 VBottom 2
WINDOW 3 32 56 VTop 2
SYMATTR InstName R6
SYMATTR Value 10K
SYMBOL cap 688 64 R0
SYMATTR InstName C3
SYMATTR Value 270nF
SYMBOL cap 608 304 R90
WINDOW 0 0 32 VBottom 2
WINDOW 3 32 32 VTop 2
SYMATTR InstName C4
SYMATTR Value 560nF
SYMBOL AutoGenerated\\AD8606 1760 304 R0
SYMATTR InstName U3
SYMBOL res 1584 416 R0
SYMATTR InstName R7
SYMATTR Value 1K
SYMBOL res 1824 448 R90
WINDOW 0 0 56 VBottom 2
WINDOW 3 32 56 VTop 2
SYMATTR InstName R8
SYMATTR Value 30K
SYMBOL AutoGenerated\\AD8606 1440 256 R0
SYMATTR InstName U4
SYMBOL res 1296 80 R0
SYMATTR InstName R9
SYMATTR Value 43K
SYMBOL res 1232 352 R90
WINDOW 0 0 56 VBottom 2
WINDOW 3 32 56 VTop 2
SYMATTR InstName R10
SYMATTR Value 43K
SYMBOL cap 1216 224 R90
WINDOW 0 0 32 VBottom 2
WINDOW 3 32 32 VTop 2
SYMATTR InstName C5
SYMATTR Value 2.2µF
SYMBOL cap 1040 224 R90
WINDOW 0 0 32 VBottom 2
WINDOW 3 32 32 VTop 2
SYMATTR InstName C6
SYMATTR Value 4.3µF
SYMBOL res 2000 320 R0
SYMATTR InstName R11
SYMATTR Value 1Meg
SYMBOL voltage 272 368 R0
WINDOW 123 0 0 Left 0
WINDOW 39 0 0 Left 0
SYMATTR InstName V1
SYMATTR Value +5V
SYMBOL voltage 384 368 R0
WINDOW 123 0 0 Left 0
WINDOW 39 0 0 Left 0
SYMATTR InstName V2
SYMATTR Value -5V
SYMBOL voltage -336 208 R0
WINDOW 123 24 124 Left 2
WINDOW 39 0 0 Left 0
SYMATTR InstName V3
SYMATTR Value SINE()
SYMATTR Value2 AC 1 0
SYMBOL res 128 304 R90
WINDOW 0 0 56 VBottom 2
WINDOW 3 32 56 VTop 2
SYMATTR InstName R2
SYMATTR Value 68K
TEXT 136 32 Left 2 ;Notch 50Hz
TEXT 584 432 Left 2 ;Paso Bajo 40Hz doble polo
TEXT 1656 184 Left 2 ;Amplificador salida
TEXT 1200 456 Left 2 ;Paso Alto 1Hz doble polo
TEXT -50 440 Left 2 !.ac oct 20 0.1 200
